[TITLE]

[JUNCTIONS]
 1                                     6.0960
 2                                    15.2400
 3                                    15.2400
 4                                    15.2400
 5                                    24.3840
 6                                    24.3840
 7                                    24.3840
 8                                    24.3840
 9                                    36.5760
 10                                   36.5760
 11                                   36.5760
 12                                   15.2400
 13                                   15.2400
 14                                   15.2400
 15                                   15.2400
 16                                   36.5760
 17                                   36.5760
 18                                   15.2400
 19                                   15.2400
 20                                    6.0960
 21                                   15.2400
 22                                   36.5760

[RESERVOIRS]
 40                                    3.0480 

[TANKS]
 41                                   65.5320      10.6680       3.0480      10.6680       0.9245      52.0000 
 42                                   65.5320      10.6680       3.0480      10.6680       0.9245      52.0000 

[PIPES]
 1                               1                               2                                  3657.6000     304.8000     120.0000       0.0000 
 2                               1                               12                                 3657.6000     304.8000      70.0000       0.0000 
 3                               1                               13                                 3657.6000     406.4000      70.0000       0.0000 
 4                               1                               20                                   30.4800     762.0000     130.0000       0.0000 
 5                               2                               3                                  1828.8000     254.0000     120.0000       0.0000 
 6                               2                               4                                  2743.2000     254.0000     120.0000       0.0000 
 7                               2                               13                                 2743.2000     304.8000      70.0000       0.0000 
 8                               2                               14                                 1828.8000     254.0000     120.0000       0.0000 
 9                               3                               4                                  1828.8000     254.0000     120.0000       0.0000 
 11                              4                               8                                  3657.6000     203.2000     120.0000       0.0000 
 12                              4                               15                                 1828.8000     254.0000     120.0000       0.0000 
 17                              8                               9                                  3657.6000     203.2000     120.0000       0.0000 
 18                              8                               15                                 1828.8000     254.0000     120.0000       0.0000 
 19                              8                               16                                 1828.8000     203.2000     120.0000       0.0000 
 20                              8                               17                                 1828.8000     203.2000     120.0000       0.0000 
 21                              9                               10                                 1828.8000     203.2000     120.0000       0.0000 
 22                              10                              11                                 1828.8000     203.2000     120.0000       0.0000 
 23                              10                              17                                 1828.8000     254.0000     120.0000       0.0000 
 24                              11                              12                                 1828.8000     203.2000     120.0000       0.0000 
 26                              12                              17                                 1828.8000     254.0000     120.0000       0.0000 
 27                              12                              18                                 1828.8000     203.2000      70.0000       0.0000 
 28                              13                              14                                 1828.8000     304.8000      70.0000       0.0000 
 29                              13                              18                                 1828.8000     304.8000      70.0000       0.0000 
 30                              13                              19                                 1828.8000     254.0000      70.0000       0.0000 
 31                              14                              15                                 1828.8000     304.8000      70.0000       0.0000 
 32                              14                              19                                 1828.8000     254.0000      70.0000       0.0000 
 33                              14                              21                                   30.4800     304.8000     120.0000       0.0000 
 34                              15                              16                                 1828.8000     254.0000      70.0000       0.0000 
 35                              15                              19                                 1828.8000     254.0000      70.0000       0.0000 
 36                              16                              17                                 1828.8000     203.2000     120.0000       0.0000 
 37                              16                              18                                 1828.8000     304.8000      70.0000       0.0000 
 38                              16                              19                                 1828.8000     254.0000      70.0000       0.0000 
 39                              17                              18                                 1828.8000     203.2000     120.0000       0.0000 
 40                              17                              22                                   30.4800     304.8000     120.0000       0.0000 
 41                              18                              19                                 1828.8000     254.0000      70.0000       0.0000 
 142                             21                              41                                    0.3048     304.8000     120.0000       0.0000 
 143                             22                              42                                    0.3048     304.8000     120.0000       0.0000 
 110                             4                               5                                  1828.8000     254.0000     130.0000       0.0000 
 113                             5                               6                                  1828.8000     254.0000     130.0000       0.0000 
 114                             6                               7                                  1828.8000     254.0000     130.0000       0.0000 
 115                             6                               8                                  1828.8000     254.0000     130.0000       0.0000 
 116                             7                               8                                  1828.8000     254.0000     130.0000       0.0000 
 125                             11                              17                                 2743.2000     254.0000     130.0000       0.0000 

[PUMPS]
 78                              40                              20                               HEAD 2
 79                              40                              20                               HEAD 2
 80                              40                              20                               HEAD 2

[VALVES]

[DEMANDS]
 1                                     5.670000 
 2                                     2.268000 
 3                                     2.268000 
 4                                     6.804000 
 5                                     6.804000 
 6                                     6.804000 
 7                                     6.804000 
 8                                     4.536000 
 9                                     4.536000 
 10                                    4.536000 
 11                                    4.536000 
 12                                    5.670000 
 13                                    5.670000 
 14                                    5.670000 
 15                                    5.670000 
 16                                    4.536000 
 17                                   11.340000 
 18                                    5.670000 
 19                                   11.340000 
 20                                    0.000000 
 21                                    0.000000 
 22                                    0.000000 

[EMITTERS]

[STATUS]

[PATTERNS]

[CURVES]
 2                                     0.0000      91.4400
 2                                   126.0000      89.0016
 2                                   252.0000      82.2960
 2                                   378.0000      70.1040
 2                                   504.0000      55.1688
 E1                                    0.0000       0.0000
 E1                                  126.0000      50.0000
 E1                                  252.0000      65.0000
 E1                                  378.0000      55.0000
 E1                                  504.0000      40.0000

[CONTROLS]

[QUALITY]

[SOURCES]

[MIXING]
 41                              MIXED          1.0000
 42                              MIXED          1.0000

[REACTIONS]
 ORDER  BULK            1.00
 ORDER  WALL            1
 ORDER  TANK            1.00
 GLOBAL BULK            0.000000
 GLOBAL WALL            0.000000

[ENERGY]
 GLOBAL EFFIC        75.0000
 DEMAND CHARGE       0.0000
 PUMP 78                              EFFIC   E1
 PUMP 79                              EFFIC   E1
 PUMP 80                              EFFIC   E1

[TIMES]
 DURATION            24:00:00
 HYDRAULIC TIMESTEP  1:00:00
 QUALITY TIMESTEP    1:00:00
 REPORT TIMESTEP     1:00:00
 REPORT START        0:00:00
 PATTERN TIMESTEP    1:00:00
 PATTERN START       0:00:00
 RULE TIMESTEP       0:06:00
 START CLOCKTIME     18:00:00
 STATISTIC           NONE

[OPTIONS]
 UNITS               LPS
 PRESSURE            METERS
 HEADLOSS            H-W
 UNBALANCED          CONTINUE 10
 QUALITY             NONE
 DEMAND MULTIPLIER   1.0000
 EMITTER EXPONENT    0.5000
 VISCOSITY           1.000000
 DIFFUSIVITY         1.000000
 SPECIFIC GRAVITY    1.000000
 TRIALS              40
 ACCURACY            0.00100000
 TOLERANCE           0.01000000
 CHECKFREQ           2
 MAXCHECK            10
 DAMPLIMIT           0.00000000

[REPORT]
 PAGESIZE            0
 STATUS              NO
 SUMMARY             NO
 ENERGY              NO
 NODES               NONE
 LINKS               NONE
 Elevation           NO
 Demand              PRECISION 2
 Head                PRECISION 2
 Pressure            PRECISION 2
 Quality             NO
 Length              NO
 Diameter            NO
 Flow                PRECISION 2
 Velocity            PRECISION 2
 Headloss            PRECISION 2
 Quality             NO
 State               NO
 Setting             NO
 Reaction            NO
[COORDINATES]
1 	 7682.330000 	 3371.150000
2 	 7633.710000 	 5737.440000
3 	 7520.260000 	 7293.350000
4 	 6175.040000 	 7568.880000
5 	 5591.570000 	 8460.290000
6 	 4100.490000 	 8071.310000
7 	 3192.870000 	 7763.370000
8 	 3321.190000 	 6696.550000
9 	 1305.620000 	 4850.970000
10 	 2317.450000 	 3588.200000
11 	 3701.630000 	 2892.060000
12 	 4846.030000 	 3354.940000
13 	 6450.570000 	 4424.640000
14 	 6466.770000 	 5769.850000
15 	 5094.450000 	 6482.090000
16 	 4017.860000 	 5615.960000
17 	 3005.490000 	 4292.430000
18 	 4846.030000 	 4440.840000
19 	 5332.250000 	 5332.250000
20 	 8544.180000 	 3371.150000
21 	 6094.000000 	 6499.190000
22 	 2422.680000 	 4519.090000
40 	 8700.600000 	 3371.150000
41 	 6094.000000 	 6600.190000
42 	 2422.680000 	 4700.090000

[BACKDROP]
DIMENSIONS 	 935.87 	 2613.65 	 9070.35 	 8738.70
UNITS 	 None 	  	  	 
FILE 	  	  	  	 
OFFSET 	 0.00 	 0.00 	  	 


[END]