[TITLE]

[JUNCTIONS]
 1                                     6.0960
 2                                    15.2400
 3                                    15.2400
 4                                    15.2400
 5                                    24.3840
 6                                    24.3840
 7                                    24.3840
 8                                    24.3840
 9                                    36.5760
 10                                   36.5760
 11                                   36.5760
 12                                   15.2400
 13                                   15.2400
 14                                   15.2400
 15                                   15.2400
 16                                   36.5760
 17                                   36.5760
 18                                   15.2400
 19                                   15.2400
 20                                    6.0960
 21                                   15.2400
 22                                   36.5760

[RESERVOIRS]
 40                                    3.0480 

[TANKS]
 41                                   65.5320      10.6680       3.0480      10.6680       0.9245      52.0000 
 42                                   65.5320      10.6680       3.0480      10.6680       0.9245      52.0000 

[PIPES]
 1                               1                               2                                  3657.6000     304.8000     120.0000       0.0000 
 2                               1                               12                                 3657.6000     304.8000      70.0000       0.0000 
 3                               1                               13                                 3657.6000     406.4000      70.0000       0.0000 
 4                               1                               20                                   30.4800     762.0000     130.0000       0.0000 
 5                               2                               3                                  1828.8000     254.0000     120.0000       0.0000 
 6                               2                               4                                  2743.2000     254.0000     120.0000       0.0000 
 7                               2                               13                                 2743.2000     304.8000      70.0000       0.0000 
 8                               2                               14                                 1828.8000     254.0000     120.0000       0.0000 
 9                               3                               4                                  1828.8000     254.0000     120.0000       0.0000 
 11                              4                               8                                  3657.6000     203.2000     120.0000       0.0000 
 12                              4                               15                                 1828.8000     254.0000     120.0000       0.0000 
 17                              8                               9                                  3657.6000     203.2000     120.0000       0.0000 
 18                              8                               15                                 1828.8000     254.0000     120.0000       0.0000 
 19                              8                               16                                 1828.8000     203.2000     120.0000       0.0000 
 20                              8                               17                                 1828.8000     203.2000     120.0000       0.0000 
 21                              9                               10                                 1828.8000     203.2000     120.0000       0.0000 
 22                              10                              11                                 1828.8000     203.2000     120.0000       0.0000 
 23                              10                              17                                 1828.8000     254.0000     120.0000       0.0000 
 24                              11                              12                                 1828.8000     203.2000     120.0000       0.0000 
 26                              12                              17                                 1828.8000     254.0000     120.0000       0.0000 
 27                              12                              18                                 1828.8000     203.2000      70.0000       0.0000 
 28                              13                              14                                 1828.8000     304.8000      70.0000       0.0000 
 29                              13                              18                                 1828.8000     304.8000      70.0000       0.0000 
 30                              13                              19                                 1828.8000     254.0000      70.0000       0.0000 
 31                              14                              15                                 1828.8000     304.8000      70.0000       0.0000 
 32                              14                              19                                 1828.8000     254.0000      70.0000       0.0000 
 33                              14                              21                                   30.4800     304.8000     120.0000       0.0000 
 34                              15                              16                                 1828.8000     254.0000      70.0000       0.0000 
 35                              15                              19                                 1828.8000     254.0000      70.0000       0.0000 
 36                              16                              17                                 1828.8000     203.2000     120.0000       0.0000 
 37                              16                              18                                 1828.8000     304.8000      70.0000       0.0000 
 38                              16                              19                                 1828.8000     254.0000      70.0000       0.0000 
 39                              17                              18                                 1828.8000     203.2000     120.0000       0.0000 
 40                              17                              22                                   30.4800     304.8000     120.0000       0.0000 
 41                              18                              19                                 1828.8000     254.0000      70.0000       0.0000 
 142                             21                              41                                    0.3048     304.8000     120.0000       0.0000 
 143                             22                              42                                    0.3048     304.8000     120.0000       0.0000 
 110                             4                               5                                  1828.8000     254.0000     130.0000       0.0000 
 113                             5                               6                                  1828.8000     254.0000     130.0000       0.0000 
 114                             6                               7                                  1828.8000     254.0000     130.0000       0.0000 
 115                             6                               8                                  1828.8000     254.0000     130.0000       0.0000 
 116                             7                               8                                  1828.8000     254.0000     130.0000       0.0000 
 125                             11                              17                                 2743.2000     254.0000     130.0000       0.0000 

[PUMPS]
 78                              40                              20                               HEAD 2
 79                              40                              20                               HEAD 2
 80                              40                              20                               HEAD 2

[VALVES]

[DEMANDS]
 1                                    31.500000    1
 2                                    12.600000    1
 3                                    12.600000    1
 4                                    37.800000    1
 5                                    37.800000    1
 6                                    37.800000    1
 7                                    37.800000    1
 8                                    25.200000    1
 9                                    25.200000    1
 10                                   25.200000    1
 11                                   25.200000    1
 12                                   31.500000    1
 13                                   31.500000    1
 14                                   31.500000    1
 15                                   31.500000    1
 16                                   25.200000    1
 17                                   63.000000    1
 18                                   31.500000    1
 19                                   63.000000    1
 20                                    0.000000    1
 21                                    0.000000    1
 22                                    0.000000    1

[EMITTERS]

[STATUS]

[PATTERNS]
 6                                     0.1000       0.1000       0.1000       0.0900       0.0900       0.0900
 6                                     0.0700       0.0700       0.0700       0.0600       0.0600       0.0600
 6                                     0.1200       0.1200       0.1200       0.1300       0.1300       0.1300
 6                                     0.1200       0.1200       0.1200       0.1100       0.1100       0.1100
 2                                     0.0000       0.0000       0.0000       0.0000       0.0000       0.0000
 2                                     0.0000       0.0000       0.0000       0.0000       0.0000       0.0000
 2                                     0.0000       0.0000       0.0000       0.0000       0.0000       0.0000
 2                                     0.0000       0.0000       0.0000       0.0000       0.0000       0.0000
 3                                     0.0000       0.0000       0.0000       0.0000       0.0000       0.0000
 3                                     0.0000       0.0000       0.0000       0.0000       0.0000       0.0000
 3                                     0.0000       0.0000       0.0000       0.0000       0.0000       0.0000
 3                                     0.0000       0.0000       0.0000       0.0000       0.0000       0.0000
 4                                     0.0000       0.0000       0.0000       0.0000       0.0000       0.0000
 4                                     0.0000       0.0000       0.0000       0.0000       0.0000       0.0000
 4                                     0.0000       0.0000       0.0000       0.0000       0.0000       0.0000
 4                                     0.0000       0.0000       0.0000       0.0000       0.0000       0.0000
 5                                     1.0000       1.0000       1.0000       0.9000       0.9000       0.9000
 5                                     0.6000       0.6000       0.6000       1.2000       1.2000       1.2000
 5                                     1.2000       1.2000       1.2000       1.3000       1.3000       1.3000
 5                                     1.2000       1.2000       1.2000       1.1000       1.1000       1.1000
 7                                     0.5000       0.5000       0.5000       0.4500       0.4500       0.4500
 7                                     0.3500       0.3500       0.3500       0.3000       0.3000       0.3000
 7                                     0.4000       0.4000       0.4000       0.4500       0.4500       0.4500
 7                                     0.6000       0.6000       0.6000       0.5500       0.5500       0.5500
 1                                     0.3000       0.3000       0.3000       0.2700       0.2700       0.2700
 1                                     0.2100       0.2100       0.2100       0.1800       0.1800       0.1800
 1                                     0.3600       0.3600       0.3600       0.3900       0.3900       0.3900
 1                                     0.3600       0.3600       0.3600       0.3300       0.3300       0.3300

[CURVES]
 2                                     0.0000      91.4400
 2                                   126.0000      89.0016
 2                                   252.0000      82.2960
 2                                   378.0000      70.1040
 2                                   504.0000      55.1688
 E1                                    0.0000       0.0000
 E1                                  126.0000      50.0000
 E1                                  252.0000      65.0000
 E1                                  378.0000      55.0000
 E1                                  504.0000      40.0000

[CONTROLS]

[QUALITY]

[SOURCES]

[MIXING]
 41                              MIXED          1.0000
 42                              MIXED          1.0000

[REACTIONS]
 ORDER  BULK            1.00
 ORDER  WALL            1
 ORDER  TANK            1.00
 GLOBAL BULK            0.000000
 GLOBAL WALL            0.000000

[ENERGY]
 GLOBAL EFFIC        75.0000
 DEMAND CHARGE       0.0000
 PUMP 78                              EFFIC   E1
 PUMP 79                              EFFIC   E1
 PUMP 80                              EFFIC   E1

[TIMES]
 DURATION            24:00:00
 HYDRAULIC TIMESTEP  1:00:00
 QUALITY TIMESTEP    1:00:00
 REPORT TIMESTEP     1:00:00
 REPORT START        0:00:00
 PATTERN TIMESTEP    1:00:00
 PATTERN START       0:00:00
 RULE TIMESTEP       0:06:00
 START CLOCKTIME     18:00:00
 STATISTIC           NONE

[OPTIONS]
 UNITS               LPS
 PRESSURE            METERS
 HEADLOSS            H-W
 PATTERN             1
 UNBALANCED          CONTINUE 10
 QUALITY             NONE
 DEMAND MULTIPLIER   1.0000
 EMITTER EXPONENT    0.5000
 VISCOSITY           1.000000
 DIFFUSIVITY         1.000000
 SPECIFIC GRAVITY    1.000000
 TRIALS              40
 ACCURACY            0.00100000
 TOLERANCE           0.01000000
 CHECKFREQ           2
 MAXCHECK            10
 DAMPLIMIT           0.00000000

[REPORT]
 PAGESIZE            0
 STATUS              NO
 SUMMARY             NO
 ENERGY              NO
 NODES               NONE
 LINKS               NONE
 Elevation           NO
 Demand              PRECISION 2
 Head                PRECISION 2
 Pressure            PRECISION 2
 Quality             NO
 Length              NO
 Diameter            NO
 Flow                PRECISION 2
 Velocity            PRECISION 2
 Headloss            PRECISION 2
 Quality             NO
 State               NO
 Setting             NO
 Reaction            NO
[TAGS]

[RULES]



[COORDINATES]
;Node            	X-Coord         	Y-Coord
 1               	7682.33         	3371.15         
 2               	7633.71         	5737.44         
 3               	7520.26         	7293.35         
 4               	6175.04         	7568.88         
 5               	5591.57         	8460.29         
 6               	4100.49         	8071.31         
 7               	3192.87         	7763.37         
 8               	3321.19         	6696.55         
 9               	1305.62         	4850.97         
 10              	2317.45         	3588.20         
 11              	3701.63         	2892.06         
 12              	4846.03         	3354.94         
 13              	6450.57         	4424.64         
 14              	6466.77         	5769.85         
 15              	5094.45         	6482.09         
 16              	4017.86         	5615.96         
 17              	3005.49         	4292.43         
 18              	4846.03         	4440.84         
 19              	5332.25         	5332.25         
 20              	8544.18         	3371.15         
 21              	6094.00         	6499.19         
 22              	2422.68         	4519.09         
 40              	8700.60         	3371.15         
 41              	6094.00         	6600.19         
 42              	2422.68         	4700.09         

[VERTICES]
;Link            	X-Coord         	Y-Coord

[LABELS]
;X-Coord           Y-Coord          Label & Anchor Node

[BACKDROP]
 DIMENSIONS     	935.87          	2613.65         	9070.35         	8738.70         
 UNITS          	None
 FILE           	
 OFFSET         	0.00            	0.00            


[END]